ABM_best_step400
     RDKit          3D

 21 21  0  0  0  0  0  0  0  0999 V2000
   -2.6871   -2.3291    0.0099 C   0  0  0  0  0  0  0  0  0  0  0  0
   -1.7895   -1.2063   -0.3039 C   0  0  0  0  0  0  0  0  0  0  0  0
   -1.6572   -0.7711   -1.4961 O   0  0  0  0  0  0  0  0  0  0  0  0
   -1.0448   -0.5642    0.6644 O   0  0  0  0  0  0  0  0  0  0  0  0
   -0.1675    0.4747    0.3821 C   0  0  0  0  0  0  0  0  0  0  0  0
    0.0232    0.8363   -0.9375 C   0  0  0  0  0  0  0  0  0  0  0  0
    0.8947    1.8678   -1.2132 C   0  0  0  0  0  0  0  0  0  0  0  0
    1.5430    2.5003   -0.1696 C   0  0  0  0  0  0  0  0  0  0  0  0
    1.3625    2.1501    1.1523 C   0  0  0  0  0  0  0  0  0  0  0  0
    0.4897    1.1187    1.4130 C   0  0  0  0  0  0  0  0  0  0  0  0
    0.2507    0.6956    2.7888 C   0  0  0  0  0  0  0  0  0  0  0  0
   -0.4750   -0.3052    3.0262 O   0  0  0  0  0  0  0  0  0  0  0  0
    0.8224    1.3943    3.8438 O   0  0  0  0  0  0  0  0  0  0  0  0
   -3.4033   -2.5245   -0.8015 H   0  0  0  0  0  0  0  0  0  0  0  0
   -3.2624   -2.0620    0.9086 H   0  0  0  0  0  0  0  0  0  0  0  0
   -2.0498   -3.2286    0.1743 H   0  0  0  0  0  0  0  0  0  0  0  0
   -0.5017    0.3152   -1.6988 H   0  0  0  0  0  0  0  0  0  0  0  0
    1.0766    2.1884   -2.2466 H   0  0  0  0  0  0  0  0  0  0  0  0
    2.2406    3.3222   -0.3552 H   0  0  0  0  0  0  0  0  0  0  0  0
    1.8830    2.6612    1.9609 H   0  0  0  0  0  0  0  0  0  0  0  0
    0.3597    1.4390    4.7521 H   0  0  0  0  0  0  0  0  0  0  0  0
  1  2  1  0
  2  3  2  0
  2  4  1  0
  4  5  1  0
  5  6  2  0
  6  7  1  0
  7  8  2  0
  8  9  1  0
  9 10  2  0
 10 11  1  0
 11 12  2  0
 11 13  1  0
 10  5  1  0
  1 14  1  0
  1 15  1  0
  1 16  1  0
  6 17  1  0
  7 18  1  0
  8 19  1  0
  9 20  1  0
 13 21  1  0
M  END
$$$$
